CPDS_validation_cosim/Distribution/Bus11/IEEE34Bus/ieee34-1_VLN_Node.Txt

LINE-GROUND and LINE-LINE VOLTAGES BY BUS & NODE

Bus       Node    VLN (kV)   Angle      pu     Base kV    Node-Node   VLL (kV)  Angle      pu

SOURCEBUS 1       41.829 /_    0.0      1.05    69.000        1-2      72.45 /_   30.0      1.05
   -      2       41.829 /_ -120.0      1.05    69.000        2-3      72.45 /_  -90.0      1.05
   -      3       41.829 /_  120.0      1.05    69.000        3-1      72.45 /_  150.0      1.05
800 ..... 1       15.095 /_  -30.0      1.05    24.900        1-2     26.145 /_    0.0      1.05
   -      2       15.095 /_ -150.0      1.05    24.900        2-3     26.145 /_ -120.0      1.05
   -      3       15.095 /_   90.0      1.05    24.900        3-1     26.145 /_  120.0      1.05
802 ..... 1       15.066 /_  -30.0     1.048    24.900        1-2     26.105 /_    0.0    1.0484
   -      2       15.075 /_ -150.1    1.0486    24.900        2-3      26.11 /_ -120.1    1.0486
   -      3       15.077 /_   90.0    1.0488    24.900        3-1     26.104 /_  119.9    1.0484
806 ..... 1       15.047 /_  -30.1    1.0467    24.900        1-2     26.079 /_   -0.1    1.0474
   -      2       15.062 /_ -150.1    1.0477    24.900        2-3     26.088 /_ -120.1    1.0477
   -      3       15.066 /_   89.9     1.048    24.900        3-1     26.077 /_  119.9    1.0473
808 ..... 1       14.685 /_  -30.6    1.0215    24.900        1-2       25.6 /_   -0.5    1.0281
   -      2       14.836 /_ -150.8     1.032    24.900        2-3     25.686 /_ -120.7    1.0316
   -      3       14.859 /_   89.4    1.0336    24.900        3-1     25.583 /_  119.2    1.0274
810 ..... 2       14.834 /_ -150.8    1.0319    24.900
812 ..... 1       14.263 /_  -31.2   0.99211    24.900        1-2     25.048 /_   -1.1    1.0059
   -      2        14.59 /_ -151.7    1.0149    24.900        2-3     25.228 /_ -121.4    1.0132
   -      3       14.611 /_   88.8    1.0164    24.900        3-1     25.006 /_  118.4    1.0043
814 ..... 1       13.926 /_  -31.7   0.96872    24.900        1-2     24.607 /_   -1.5   0.98823
   -      2       14.395 /_ -152.4    1.0013    24.900        2-3     24.865 /_ -122.0   0.99859
   -      3       14.414 /_   88.3    1.0026    24.900        3-1     24.548 /_  117.7   0.98585
814R .... 1       13.924 /_  -31.7   0.96854    24.900        1-2     24.603 /_   -1.5   0.98807
   -      2       14.393 /_ -152.4    1.0012    24.900        2-3     24.862 /_ -122.0   0.99847
   -      3       14.412 /_   88.3    1.0025    24.900        3-1     24.545 /_  117.7   0.98573
850 ..... 1       13.924 /_  -31.7   0.96853    24.900        1-2     24.603 /_   -1.5   0.98806
   -      2       14.393 /_ -152.4    1.0012    24.900        2-3     24.862 /_ -122.0   0.99847
   -      3       14.412 /_   88.3    1.0025    24.900        3-1     24.544 /_  117.7   0.98572
816 ..... 1       13.919 /_  -31.7   0.96819    24.900        1-2     24.596 /_   -1.5    0.9878
   -      2        14.39 /_ -152.4     1.001    24.900        2-3     24.856 /_ -122.0   0.99824
   -      3       14.409 /_   88.3    1.0023    24.900        3-1     24.537 /_  117.7   0.98544
818 ..... 1       13.906 /_  -31.7   0.96732    24.900
824 ..... 1       13.812 /_  -31.8    0.9608    24.900        1-2     24.414 /_   -1.7   0.98046
   -      2        14.27 /_ -152.6   0.99264    24.900        2-3     24.668 /_ -122.2   0.99067
   -      3       14.309 /_   88.1   0.99537    24.900        3-1     24.344 /_  117.5   0.97768
820 ..... 1       13.587 /_  -31.8   0.94513    24.900
822 ..... 1       13.546 /_  -31.8   0.94229    24.900
826 ..... 2       14.267 /_ -152.6   0.99245    24.900
828 ..... 1       13.804 /_  -31.8    0.9602    24.900        1-2     24.399 /_   -1.7   0.97989
   -      2       14.262 /_ -152.6   0.99204    24.900        2-3     24.653 /_ -122.2   0.99008
   -      3       14.301 /_   88.1   0.99478    24.900        3-1     24.328 /_  117.5   0.97704
830 ..... 1       13.594 /_  -32.1    0.9456    24.900        1-2     24.054 /_   -2.0   0.96604
   -      2        14.05 /_ -153.0   0.97729    24.900        2-3     24.297 /_ -122.6    0.9758
   -      3       14.098 /_   87.6   0.98063    24.900        3-1     23.945 /_  117.2   0.96166
854 ..... 1       13.589 /_  -32.1   0.94524    24.900        1-2     24.046 /_   -2.0   0.96571
   -      2       14.044 /_ -153.0   0.97693    24.900        2-3     24.289 /_ -122.6   0.97545
   -      3       14.093 /_   87.6   0.98028    24.900        3-1     23.936 /_  117.2   0.96128
832 ..... 1       13.226 /_  -32.5   0.92002    24.900        1-2     23.448 /_   -2.6   0.94167
   -      2       13.676 /_ -153.7   0.95129    24.900        2-3     23.674 /_ -123.4   0.95074
   -      3       13.738 /_   86.8   0.95562    24.900        3-1     23.268 /_  116.5   0.93448
858 ..... 1       13.196 /_  -32.5   0.91789    24.900        1-2     23.397 /_   -2.6   0.93965
   -      2       13.644 /_ -153.8   0.94905    24.900        2-3     23.622 /_ -123.5   0.94868
   -      3       13.709 /_   86.7   0.95358    24.900        3-1     23.211 /_  116.5   0.93215
834 ..... 1        13.16 /_  -32.6   0.91544    24.900        1-2     23.339 /_   -2.7    0.9373
   -      2       13.606 /_ -153.9   0.94643    24.900        2-3     23.563 /_ -123.6    0.9463
   -      3       13.675 /_   86.6   0.95125    24.900        3-1     23.144 /_  116.4   0.92946
860 ..... 1       13.155 /_  -32.6   0.91503    24.900        1-2     23.329 /_   -2.7   0.93692
   -      2         13.6 /_ -153.9   0.94602    24.900        2-3     23.554 /_ -123.6   0.94593
   -      3        13.67 /_   86.6    0.9509    24.900        3-1     23.133 /_  116.4   0.92904
842 ..... 1        13.16 /_  -32.6   0.91539    24.900        1-2     23.337 /_   -2.7   0.93724
   -      2       13.605 /_ -153.9   0.94636    24.900        2-3     23.562 /_ -123.6   0.94625
   -      3       13.675 /_   86.6   0.95121    24.900        3-1     23.142 /_  116.4   0.92942
836 ..... 1       13.152 /_  -32.6   0.91484    24.900        1-2     23.323 /_   -2.7   0.93666
   -      2       13.595 /_ -153.9   0.94566    24.900        2-3     23.547 /_ -123.6   0.94568
   -      3       13.668 /_   86.6   0.95077    24.900        3-1     23.129 /_  116.4   0.92887
840 ..... 1       13.151 /_  -32.6   0.91482    24.900        1-2     23.322 /_   -2.7   0.93664
   -      2       13.594 /_ -153.9   0.94563    24.900        2-3     23.547 /_ -123.6   0.94565
   -      3       13.668 /_   86.6   0.95074    24.900        3-1     23.128 /_  116.4   0.92884
862 ..... 1       13.152 /_  -32.6   0.91484    24.900        1-2     23.323 /_   -2.7   0.93666
   -      2       13.595 /_ -153.9   0.94564    24.900        2-3     23.547 /_ -123.6   0.94567
   -      3       13.668 /_   86.6   0.95077    24.900        3-1     23.129 /_  116.4   0.92887
844 ..... 1       13.157 /_  -32.6    0.9152    24.900        1-2     23.331 /_   -2.8     0.937
   -      2         13.6 /_ -154.0   0.94605    24.900        2-3     23.555 /_ -123.6     0.946
   -      3       13.672 /_   86.6     0.951    24.900        3-1     23.137 /_  116.3   0.92919
846 ..... 1        13.16 /_  -32.6   0.91541    24.900        1-2     23.334 /_   -2.8    0.9371
   -      2         13.6 /_ -154.0   0.94601    24.900        2-3     23.558 /_ -123.7   0.94612
   -      3       13.675 /_   86.5   0.95126    24.900        3-1     23.142 /_  116.3    0.9294
848 ..... 1        13.16 /_  -32.7   0.91544    24.900        1-2     23.335 /_   -2.8   0.93713
   -      2         13.6 /_ -154.0   0.94603    24.900        2-3     23.559 /_ -123.7   0.94615
   -      3       13.676 /_   86.5    0.9513    24.900        3-1     23.143 /_  116.3   0.92943
852R .... 1       13.226 /_  -32.5   0.92003    24.900        1-2     23.448 /_   -2.6   0.94168
   -      2       13.676 /_ -153.7    0.9513    24.900        2-3     23.674 /_ -123.4   0.95075
   -      3       13.738 /_   86.8   0.95563    24.900        3-1     23.269 /_  116.5   0.93448
888 ..... 1       2.1369 /_  -33.9   0.88971     4.160        1-2     3.7903 /_   -4.0   0.91113
   -      2       2.2115 /_ -155.2   0.92076     4.160        2-3     3.8266 /_ -124.8   0.91985
   -      3       2.2214 /_   85.5    0.9249     4.160        3-1     3.7621 /_  115.1   0.90435
856 ..... 2       14.043 /_ -153.0   0.97684    24.900
852 ..... 1       13.228 /_  -32.4   0.92014    24.900        1-2      23.45 /_   -2.5   0.94178
   -      2       13.677 /_ -153.7    0.9514    24.900        2-3     23.676 /_ -123.4   0.95085
   -      3       13.739 /_   86.8   0.95572    24.900        3-1     23.271 /_  116.6   0.93459
864 ..... 1       13.196 /_  -32.5   0.91789    24.900
838 ..... 2       13.592 /_ -153.9   0.94549    24.900
890 ..... 1       1.9705 /_  -34.4   0.82044     4.160        1-2     3.5203 /_   -4.6   0.84623
   -      2       2.0587 /_ -156.2   0.85714     4.160        2-3     3.5448 /_ -125.8   0.85212
   -      3       2.0539 /_   84.7   0.85514     4.160        3-1     3.4706 /_  114.5   0.83427
